Circuit: * C:\lt_spice_simulations\Draft2.asc

Error on line 8 : v5 vin 0 ac vin
	 Unknown parameter "vin"
Direct Newton iteration for .op point succeeded.

Date: Fri Oct  4 00:20:44 2024
Total elapsed time: 0.047 seconds.

tnom = 27
temp = 27
method = trap
totiter = 4
traniter = 0
tranpoints = 0
accept = 0
rejected = 0
matrix size = 14
fillins = 4
solver = Normal
Avg thread counts: 16.0/0.0/16.0/4.5
Matrix Compiler1:      52 opcodes
Matrix Compiler2: 1.46 KB object code size
