LTspice 24.0.12 for Windows
Circuit: * C:\lt_spice_simulations\Voltage_divider_amplifer.asc
Start Time: Wed Nov  6 01:05:11 2024
Warning: Multiple definitions of model "2scr375p" Type: BJT
Warning: Multiple definitions of model "bc857b" Type: BJT
Warning: Multiple definitions of model "bc847c" Type: BJT
Warning: Multiple definitions of model "bc847b" Type: BJT
solver = Normal
Maximum thread count: 16
tnom = 27
temp = 27
method = modified trap
trtol = 1
Direct Newton iteration for .op point succeeded.
Total elapsed time: 0.154 seconds.

